<routes>
	<vType id="vtypeauto" accel="10" decel="10" sigma="1" length="4"
		   minGap="0" maxSpeed="37" color="1,0,0" probability="1"
		   carFollowModel="CC" tauEngine="0.0001" omegaN="10" xi="10" c1="10"
		   lanesCount="4" ccAccel="9.5" ploegKp="15.5" ploegKd="15.7"
		   ploegH="0.5"/>
	<vType id="passenger" accel="5" decel="6" sigma="0.5" length="4"
		   minGap="0" maxSpeed="37.11" color="0.16,0.33,0.42" vClass="passenger"
		   guiShape="passenger" speedFactor="1" departSpeed="max"
		   carFollowModel="IDM" />
	<vType id="passenger2" accel="1.5" decel="4.5" sigma="0.5" length="4"
		   minGap="0" maxSpeed="20" color="0.16,0.33,0.42" vClass="passenger"
		   guiShape="passenger" speedFactor="1" departSpeed="max"
	       carFollowModel="IDM" />
	<route id="platoon_route" edges='-25'/>



	<vehicle id="20" depart="0.00">
			<route edges="20 19 17 15#1 15#0 13 -3 3 12 10#1 10#0 -24"/>
	</vehicle>
	<vehicle id="21" depart="0.25">
			<route edges="-40 -41 -42 42 41 -32 -38"/>
	</vehicle>
	<vehicle id="22" depart="0.50">
			<route edges="3 2 -28 -29 -30 -32 -38 20"/>
	</vehicle>
	<vehicle id="23" depart="0.75">
			<route edges="46 17 15#1 15#0 13 -3 3 2 -28"/>
	</vehicle>
	<vehicle id="24" depart="1.00">
			<route edges="-6 -27 -2 12 10#1 10#0 -24"/>
	</vehicle>


</routes>
