<routes>
	<vType id="vtypeauto" accel="10" decel="10" sigma="1" length="4"
		   minGap="0" maxSpeed="37" color="1,0,0" probability="1"
		   carFollowModel="CC" tauEngine="0.0001" omegaN="10" xi="10" c1="10"
		   lanesCount="4" ccAccel="9.5" ploegKp="15.5" ploegKd="15.7"
		   ploegH="0.5"/>
	<vType id="passenger" accel="5" decel="6" sigma="0.5" length="4"
		   minGap="0" maxSpeed="37.11" color="0.16,0.33,0.42" vClass="passenger"
		   guiShape="passenger" speedFactor="1" departSpeed="max"
		   carFollowModel="IDM" />
	<vType id="passenger2" accel="1.5" decel="4.5" sigma="0.5" length="4"
		   minGap="0" maxSpeed="20" color="0.16,0.33,0.42" vClass="passenger"
		   guiShape="passenger" speedFactor="1" departSpeed="max"
	       carFollowModel="IDM" />
	<route id="platoon_route" edges="20"/>
</routes>
