<?xml version="1.0" encoding="UTF-8"?>

<!-- generated on 2022-09-29 12:02:25 by Eclipse SUMO netconvert Version 1.14.1
<configuration xmlns:xsi="http://www.w3.org/2001/XMLSchema-instance" xsi:noNamespaceSchemaLocation="http://sumo.dlr.de/xsd/netconvertConfiguration.xsd">

    <input>
        <opendrive-files value="midtown.xodr"/>
    </input>

    <output>
        <output-file value="mySUMOnetwork.net.xml"/>
    </output>

</configuration>
-->

<net version="1.9" junctionCornerDetail="5" rectangularLaneCut="true" limitTurnSpeed="5.50" xmlns:xsi="http://www.w3.org/2001/XMLSchema-instance" xsi:noNamespaceSchemaLocation="http://sumo.dlr.de/xsd/net_file.xsd">

    <vType id="default"/>

    <location netOffset="429.26,965.84" convBoundary="0.00,0.00,417.66,998.65" origBoundary="0.000000,0.000000,0.000000,0.000000" projParameter="+proj=tmerc +lat_0=-0.0001120513726859805 +lon_0=0.0002057141966365153 +k=1 +x_0=0 +y_0=0 +datum=WGS84 +units=m +geoidgrids=egm96_15.gtx +vunits=m +no_defs "/>

    <type id="bidirectional" priority="1" speed="1.39" disallow="pedestrian tram rail_urban rail rail_electric rail_fast ship" width="3.65"/>
    <type id="border" priority="0" speed="1.39" disallow="all" discard="1" width="0.10"/>
    <type id="driving" priority="1" speed="13.89" disallow="pedestrian tram rail_urban rail rail_electric rail_fast ship" width="3.65"/>
    <type id="entry" priority="1" speed="22.22" disallow="pedestrian tram rail_urban rail rail_electric rail_fast ship" width="3.65"/>
    <type id="exit" priority="1" speed="22.22" disallow="pedestrian tram rail_urban rail rail_electric rail_fast ship" width="3.65"/>
    <type id="median" priority="0" speed="1.39" disallow="all" discard="1" width="0.10"/>
    <type id="mwyEntry" priority="1" speed="22.22" allow="private emergency authority army vip passenger hov taxi bus coach delivery truck trailer motorcycle evehicle custom1 custom2" width="3.65"/>
    <type id="mwyExit" priority="1" speed="22.22" allow="private emergency authority army vip passenger hov taxi bus coach delivery truck trailer motorcycle evehicle custom1 custom2" width="3.65"/>
    <type id="none" priority="0" speed="1.39" disallow="all" discard="1" width="1.00"/>
    <type id="offRamp" priority="1" speed="22.22" allow="private emergency authority army vip passenger hov taxi bus coach delivery truck trailer motorcycle evehicle custom1 custom2" width="3.65"/>
    <type id="onRamp" priority="1" speed="22.22" allow="private emergency authority army vip passenger hov taxi bus coach delivery truck trailer motorcycle evehicle custom1 custom2" width="3.65"/>
    <type id="parking" priority="1" speed="1.39" disallow="pedestrian tram rail_urban rail rail_electric rail_fast ship" width="2.50"/>
    <type id="rail" priority="3" speed="33.33" allow="rail_urban rail rail_electric rail_fast" width="3.65"/>
    <type id="restricted" priority="0" speed="13.89" disallow="all" width="3.65"/>
    <type id="roadWorks" priority="0" speed="1.39" allow="authority" width="3.65"/>
    <type id="shoulder" priority="0" speed="1.39" disallow="all" discard="1" width="1.00"/>
    <type id="special1" priority="1" speed="22.22" allow="custom1" discard="1" width="3.65"/>
    <type id="special2" priority="1" speed="22.22" allow="custom2" discard="1" width="3.65"/>
    <type id="special3" priority="1" speed="22.22" allow="custom1 custom2" discard="1" width="3.65"/>
    <type id="stop" priority="1" speed="13.89" disallow="pedestrian tram rail_urban rail rail_electric rail_fast ship" width="3.65"/>
    <type id="tram" priority="2" speed="13.89" allow="tram" width="3.65"/>

    <edge id=":0.begin_0" function="internal">
        <lane id=":0.begin_0_0" index="0" disallow="pedestrian tram rail_urban rail rail_electric rail_fast ship" speed="3.82" length="5.11" width="3.50" shape="417.54,917.59 418.91,918.38 419.41,919.22 419.03,920.12 417.78,921.09"/>
    </edge>
    <edge id=":1.begin_0" function="internal">
        <lane id=":1.begin_0_0" index="0" disallow="pedestrian tram rail_urban rail rail_electric rail_fast ship" speed="3.82" length="5.11" width="3.50" shape="0.02,713.84 -1.30,712.98 -1.75,712.11 -1.32,711.23 -0.02,710.34"/>
    </edge>
    <edge id=":10#1_0" function="internal">
        <lane id=":10#1_0_0" index="0" disallow="pedestrian tram rail_urban rail rail_electric rail_fast ship" speed="17.88" length="5.92" width="2.94" shape="289.94,802.09 290.01,808.01"/>
        <lane id=":10#1_0_1" index="1" disallow="pedestrian tram rail_urban rail rail_electric rail_fast ship" speed="17.88" length="5.92" width="3.08" shape="286.93,802.12 287.00,808.04"/>
        <lane id=":10#1_0_2" index="2" disallow="pedestrian tram rail_urban rail rail_electric rail_fast ship" speed="17.88" length="5.92" width="3.08" shape="283.85,802.16 283.92,808.07"/>
        <lane id=":10#1_0_3" index="3" disallow="pedestrian tram rail_urban rail rail_electric rail_fast ship" speed="17.88" length="5.92" width="3.73" shape="280.45,802.19 280.51,808.11"/>
    </edge>
    <edge id=":115_0" function="internal">
        <lane id=":115_0_0" index="0" disallow="pedestrian tram rail_urban rail rail_electric rail_fast ship" speed="11.86" length="23.02" width="2.94" shape="300.28,929.01 296.57,930.30 293.14,933.66 289.99,939.08 287.11,946.56"/>
    </edge>
    <edge id=":115_1" function="internal">
        <lane id=":115_1_0" index="0" disallow="pedestrian tram rail_urban rail rail_electric rail_fast ship" speed="7.96" length="15.64" width="3.50" shape="289.20,917.72 289.64,921.42 291.59,923.96 295.06,925.32 300.04,925.52"/>
    </edge>
    <edge id=":115_2" function="internal">
        <lane id=":115_2_0" index="0" disallow="pedestrian tram rail_urban rail rail_electric rail_fast ship" speed="17.88" length="27.02" width="2.94" shape="289.20,917.72 289.05,926.38 289.41,932.39 289.15,938.28 287.11,946.56"/>
        <lane id=":115_2_1" index="1" disallow="pedestrian tram rail_urban rail rail_electric rail_fast ship" speed="17.88" length="27.02" width="3.08" shape="286.20,917.50 286.22,925.73 286.86,931.51 286.69,937.09 284.29,944.74"/>
        <lane id=":115_2_2" index="2" disallow="pedestrian tram rail_urban rail rail_electric rail_fast ship" speed="17.88" length="27.02" width="3.08" shape="283.12,917.27 283.46,925.19 284.60,930.88 284.61,936.20 281.55,942.97"/>
        <lane id=":115_2_3" index="3" disallow="pedestrian tram rail_urban rail rail_electric rail_fast ship" speed="17.88" length="27.02" width="3.73" shape="279.73,917.02 280.11,924.44 281.33,929.79 281.49,934.78 278.69,941.13"/>
    </edge>
    <edge id=":128_0" function="internal">
        <lane id=":128_0_0" index="0" disallow="pedestrian tram rail_urban rail rail_electric rail_fast ship" speed="17.88" length="31.27" width="3.50" shape="145.80,506.44 114.53,506.89"/>
    </edge>
    <edge id=":128_1" function="internal">
        <lane id=":128_1_0" index="0" disallow="pedestrian tram rail_urban rail rail_electric rail_fast ship" speed="8.69" length="17.29" width="3.30" shape="145.80,506.44 141.21,505.81 137.96,503.78 136.06,500.33 135.50,495.48"/>
    </edge>
    <edge id=":128_2" function="internal">
        <lane id=":128_2_0" index="0" disallow="pedestrian tram rail_urban rail rail_electric rail_fast ship" speed="17.88" length="31.27" width="3.50" shape="114.48,503.39 145.75,502.94"/>
    </edge>
    <edge id=":128_3" function="internal">
        <lane id=":128_3_0" index="0" disallow="pedestrian tram rail_urban rail rail_electric rail_fast ship" speed="17.88" length="19.08" width="3.15" shape="124.70,514.34 125.28,495.27"/>
        <lane id=":128_3_1" index="1" disallow="pedestrian tram rail_urban rail rail_electric rail_fast ship" speed="17.88" length="19.08" width="3.50" shape="128.20,514.42 128.60,495.34"/>
        <lane id=":128_3_2" index="2" disallow="pedestrian tram rail_urban rail rail_electric rail_fast ship" speed="17.88" length="19.08" width="3.50" shape="131.70,514.49 132.10,495.41"/>
        <lane id=":128_3_3" index="3" disallow="pedestrian tram rail_urban rail rail_electric rail_fast ship" speed="17.88" length="19.08" width="3.30" shape="135.10,514.56 135.50,495.48"/>
    </edge>
    <edge id=":128_7" function="internal">
        <lane id=":128_7_0" index="0" disallow="pedestrian tram rail_urban rail rail_electric rail_fast ship" speed="9.03" length="17.82" width="3.50" shape="135.10,514.56 135.86,509.53 137.88,505.92 141.18,503.72 145.75,502.94"/>
    </edge>
    <edge id=":15#1_0" function="internal">
        <lane id=":15#1_0_0" index="0" disallow="pedestrian tram rail_urban rail rail_electric rail_fast ship" speed="17.88" length="6.15" width="2.94" shape="287.82,608.91 287.91,615.07"/>
        <lane id=":15#1_0_1" index="1" disallow="pedestrian tram rail_urban rail rail_electric rail_fast ship" speed="17.88" length="6.15" width="3.08" shape="284.81,608.95 284.90,615.10"/>
        <lane id=":15#1_0_2" index="2" disallow="pedestrian tram rail_urban rail rail_electric rail_fast ship" speed="17.88" length="6.15" width="3.08" shape="281.73,608.98 281.82,615.13"/>
        <lane id=":15#1_0_3" index="3" disallow="pedestrian tram rail_urban rail rail_electric rail_fast ship" speed="17.88" length="6.15" width="3.73" shape="278.33,609.02 278.42,615.17"/>
        <lane id=":15#1_0_4" index="4" disallow="pedestrian tram rail_urban rail rail_electric rail_fast ship" speed="17.88" length="6.15" width="2.50" shape="275.21,609.05 275.30,615.20"/>
    </edge>
    <edge id=":188_0" function="internal">
        <lane id=":188_0_0" index="0" disallow="pedestrian tram rail_urban rail rail_electric rail_fast ship" speed="17.88" length="19.57" width="3.15" shape="125.52,196.26 126.03,190.52 127.17,186.66 128.30,182.80 128.82,177.06"/>
        <lane id=":188_0_1" index="1" disallow="pedestrian tram rail_urban rail rail_electric rail_fast ship" speed="17.88" length="19.57" width="3.50" shape="128.84,196.25 129.35,190.52 130.49,186.66 131.63,182.80 132.14,177.06"/>
        <lane id=":188_0_2" index="2" disallow="pedestrian tram rail_urban rail rail_electric rail_fast ship" speed="17.88" length="19.57" width="3.30" shape="132.17,196.25 132.69,190.51 133.86,186.65 135.02,182.79 135.54,177.06"/>
    </edge>
    <edge id=":188_3" function="internal">
        <lane id=":188_3_0" index="0" disallow="pedestrian tram rail_urban rail rail_electric rail_fast ship" speed="8.56" length="16.18" width="3.50" shape="135.57,196.24 136.06,191.06,0.00 137.56,187.33,0.00 140.06,185.07,0.00 143.56,184.27,0.00"/>
    </edge>
    <edge id=":188_4" function="internal">
        <lane id=":188_4_0" index="0" disallow="pedestrian tram rail_urban rail rail_electric rail_fast ship" speed="8.26" length="15.25" width="3.30" shape="143.62,187.77,0.00 140.09,187.15,0.00 137.57,185.16,0.00 136.05,181.79,0.00 135.54,177.06"/>
    </edge>
    <edge id=":21#1_0" function="internal">
        <lane id=":21#1_0_0" index="0" disallow="pedestrian tram rail_urban rail rail_electric rail_fast ship" speed="17.88" length="5.90" width="2.94" shape="281.91,70.07 281.97,75.97"/>
        <lane id=":21#1_0_1" index="1" disallow="pedestrian tram rail_urban rail rail_electric rail_fast ship" speed="17.88" length="5.90" width="3.08" shape="278.90,70.10 278.96,76.00"/>
        <lane id=":21#1_0_2" index="2" disallow="pedestrian tram rail_urban rail rail_electric rail_fast ship" speed="17.88" length="5.90" width="3.08" shape="275.82,70.13 275.89,76.04"/>
        <lane id=":21#1_0_3" index="3" disallow="pedestrian tram rail_urban rail rail_electric rail_fast ship" speed="17.88" length="5.90" width="3.73" shape="272.41,70.17 272.48,76.07"/>
    </edge>
    <edge id=":243_0" function="internal">
        <lane id=":243_0_0" index="0" disallow="pedestrian tram rail_urban rail rail_electric rail_fast ship" speed="7.01" length="10.40" width="2.94" shape="296.54,795.53 293.63,796.01 291.56,797.22 290.33,799.18 289.94,801.89"/>
    </edge>
    <edge id=":243_1" function="internal">
        <lane id=":243_1_0" index="0" disallow="pedestrian tram rail_urban rail rail_electric rail_fast ship" speed="17.88" length="23.17" width="3.50" shape="296.54,795.53 273.38,796.22"/>
    </edge>
    <edge id=":243_2" function="internal">
        <lane id=":243_2_0" index="0" disallow="pedestrian tram rail_urban rail rail_electric rail_fast ship" speed="7.11" length="11.22" width="3.50" shape="289.75,784.86 290.20,788.07 291.46,790.34 293.54,791.66 296.44,792.04"/>
    </edge>
    <edge id=":243_3" function="internal">
        <lane id=":243_3_0" index="0" disallow="pedestrian tram rail_urban rail rail_electric rail_fast ship" speed="17.88" length="17.03" width="2.94" shape="289.75,784.86 289.94,801.89"/>
        <lane id=":243_3_1" index="1" disallow="pedestrian tram rail_urban rail rail_electric rail_fast ship" speed="17.88" length="17.03" width="3.08" shape="286.74,784.89 286.93,801.92"/>
        <lane id=":243_3_2" index="2" disallow="pedestrian tram rail_urban rail rail_electric rail_fast ship" speed="17.88" length="17.03" width="3.08" shape="283.66,784.93 283.85,801.96"/>
        <lane id=":243_3_3" index="3" disallow="pedestrian tram rail_urban rail rail_electric rail_fast ship" speed="17.88" length="17.03" width="3.73" shape="280.26,784.96 280.44,801.99"/>
    </edge>
    <edge id=":243_7" function="internal">
        <lane id=":243_7_0" index="0" disallow="pedestrian tram rail_urban rail rail_electric rail_fast ship" speed="8.25" length="14.77" width="3.50" shape="280.26,784.96 279.87,789.81 278.60,793.30 276.43,795.44 273.38,796.22"/>
    </edge>
    <edge id=":243_8" function="internal">
        <lane id=":243_8_0" index="0" disallow="pedestrian tram rail_urban rail rail_electric rail_fast ship" speed="17.88" length="23.17" width="3.50" shape="273.28,792.72 296.44,792.04"/>
    </edge>
    <edge id=":243_9" function="internal">
        <lane id=":243_9_0" index="0" disallow="pedestrian tram rail_urban rail rail_electric rail_fast ship" speed="7.75" length="13.33" width="3.73" shape="273.28,792.72 276.37,793.22 278.60,794.93 279.96,797.86 280.44,801.99"/>
    </edge>
    <edge id=":279_0" function="internal">
        <lane id=":279_0_0" index="0" disallow="pedestrian tram rail_urban rail rail_electric rail_fast ship" speed="7.85" length="13.41" width="2.94" shape="294.17,359.01 290.20,359.57 287.37,361.03 285.70,363.40 285.16,366.67"/>
    </edge>
    <edge id=":279_1" function="internal">
        <lane id=":279_1_0" index="0" disallow="pedestrian tram rail_urban rail rail_electric rail_fast ship" speed="17.88" length="28.03" width="3.50" shape="294.17,359.01 266.14,359.63"/>
    </edge>
    <edge id=":279_2" function="internal">
        <lane id=":279_2_0" index="0" disallow="pedestrian tram rail_urban rail rail_electric rail_fast ship" speed="7.69" length="13.21" width="3.50" shape="284.96,348.37 285.56,351.57 287.29,353.83 290.13,355.14 294.09,355.52"/>
    </edge>
    <edge id=":279_3" function="internal">
        <lane id=":279_3_0" index="0" disallow="pedestrian tram rail_urban rail rail_electric rail_fast ship" speed="17.88" length="18.31" width="2.94" shape="284.96,348.37 285.16,366.67"/>
        <lane id=":279_3_1" index="1" disallow="pedestrian tram rail_urban rail rail_electric rail_fast ship" speed="17.88" length="18.31" width="3.08" shape="281.95,348.40 282.15,366.70"/>
        <lane id=":279_3_2" index="2" disallow="pedestrian tram rail_urban rail rail_electric rail_fast ship" speed="17.88" length="18.31" width="3.08" shape="278.87,348.43 279.07,366.74"/>
        <lane id=":279_3_3" index="3" disallow="pedestrian tram rail_urban rail rail_electric rail_fast ship" speed="17.88" length="18.31" width="3.73" shape="275.47,348.47 275.67,366.78"/>
    </edge>
    <edge id=":279_7" function="internal">
        <lane id=":279_7_0" index="0" disallow="pedestrian tram rail_urban rail rail_electric rail_fast ship" speed="8.67" length="16.52" width="3.50" shape="275.47,348.47 274.93,353.27 273.20,356.74 270.27,358.85 266.14,359.63"/>
    </edge>
    <edge id=":279_8" function="internal">
        <lane id=":279_8_0" index="0" disallow="pedestrian tram rail_urban rail rail_electric rail_fast ship" speed="17.88" length="28.03" width="3.50" shape="266.07,356.13 294.09,355.52"/>
    </edge>
    <edge id=":279_9" function="internal">
        <lane id=":279_9_0" index="0" disallow="pedestrian tram rail_urban rail rail_electric rail_fast ship" speed="8.54" length="16.37" width="3.73" shape="266.07,356.13 270.22,356.72 273.21,358.69 275.02,362.04 275.67,366.78"/>
    </edge>
    <edge id=":3.end_0" function="internal">
        <lane id=":3.end_0_0" index="0" disallow="pedestrian tram rail_urban rail rail_electric rail_fast ship" speed="3.82" length="5.11" width="3.50" shape="319.70,707.18 321.02,708.04 321.47,708.91 321.04,709.79 319.74,710.68"/>
    </edge>
    <edge id=":319_0" function="internal">
        <lane id=":319_0_0" index="0" disallow="pedestrian tram rail_urban rail rail_electric rail_fast ship" speed="8.02" length="14.40" width="3.30" shape="134.92,851.52,0.30 131.92,850.84,0.24 129.81,848.80,0.18 128.59,845.39,0.10 128.26,840.63"/>
    </edge>
    <edge id=":319_1" function="internal">
        <lane id=":319_1_0" index="0" disallow="pedestrian tram rail_urban rail rail_electric rail_fast ship" speed="17.88" length="18.00" width="3.15" shape="117.66,858.41 118.04,840.41"/>
        <lane id=":319_1_1" index="1" disallow="pedestrian tram rail_urban rail rail_electric rail_fast ship" speed="17.88" length="18.00" width="3.50" shape="120.99,858.48 121.37,840.48"/>
        <lane id=":319_1_2" index="2" disallow="pedestrian tram rail_urban rail rail_electric rail_fast ship" speed="17.88" length="18.00" width="3.50" shape="124.49,858.56 124.86,840.55"/>
        <lane id=":319_1_3" index="3" disallow="pedestrian tram rail_urban rail rail_electric rail_fast ship" speed="17.88" length="18.00" width="3.30" shape="127.89,858.63 128.26,840.63"/>
    </edge>
    <edge id=":319_5" function="internal">
        <lane id=":319_5_0" index="0" disallow="pedestrian tram rail_urban rail rail_electric rail_fast ship" speed="8.09" length="14.26" width="3.50" shape="127.89,858.63 128.41,853.99,0.10 129.76,850.67,0.18 131.92,848.68,0.24 134.92,848.02,0.30"/>
    </edge>
    <edge id=":337_0" function="internal">
        <lane id=":337_0_0" index="0" disallow="pedestrian tram rail_urban rail rail_electric rail_fast ship" speed="6.68" length="9.58" width="2.94" shape="287.98,64.10 285.30,64.46 283.40,65.54 282.26,67.34 281.91,69.87"/>
    </edge>
    <edge id=":337_1" function="internal">
        <lane id=":337_1_0" index="0" disallow="pedestrian tram rail_urban rail rail_electric rail_fast ship" speed="17.88" length="22.84" width="3.50" shape="287.98,64.10 265.15,64.05"/>
        <lane id=":337_1_1" index="1" disallow="pedestrian tram rail_urban rail rail_electric rail_fast ship" speed="17.88" length="22.84" width="3.50" shape="287.99,60.60 265.16,60.55"/>
        <lane id=":337_1_2" index="2" disallow="pedestrian tram rail_urban rail rail_electric rail_fast ship" speed="17.88" length="22.84" width="3.50" shape="288.00,57.10 265.17,57.05"/>
    </edge>
    <edge id=":337_4" function="internal">
        <lane id=":337_4_0" index="0" disallow="pedestrian tram rail_urban rail rail_electric rail_fast ship" speed="7.19" length="11.22" width="3.50" shape="281.57,39.12 282.00,42.39 283.23,44.73 285.23,46.13 288.03,46.60"/>
    </edge>
    <edge id=":337_5" function="internal">
        <lane id=":337_5_0" index="0" disallow="pedestrian tram rail_urban rail rail_electric rail_fast ship" speed="17.88" length="30.75" width="2.94" shape="281.57,39.12 281.91,69.87"/>
        <lane id=":337_5_1" index="1" disallow="pedestrian tram rail_urban rail rail_electric rail_fast ship" speed="17.88" length="30.75" width="3.08" shape="278.56,39.15 278.90,69.90"/>
        <lane id=":337_5_2" index="2" disallow="pedestrian tram rail_urban rail rail_electric rail_fast ship" speed="17.88" length="30.75" width="3.08" shape="275.48,39.19 275.82,69.93"/>
        <lane id=":337_5_3" index="3" disallow="pedestrian tram rail_urban rail rail_electric rail_fast ship" speed="17.88" length="30.75" width="3.73" shape="272.07,39.22 272.41,69.97"/>
    </edge>
    <edge id=":337_9" function="internal">
        <lane id=":337_9_0" index="0" disallow="pedestrian tram rail_urban rail rail_electric rail_fast ship" speed="9.57" length="20.81" width="3.50" shape="272.07,39.22 271.72,47.03 270.45,52.60 268.26,55.94 265.17,57.05"/>
    </edge>
    <edge id=":337_10" function="internal">
        <lane id=":337_10_0" index="0" disallow="pedestrian tram rail_urban rail rail_electric rail_fast ship" speed="17.88" length="22.84" width="3.50" shape="265.19,46.55 288.03,46.60"/>
        <lane id=":337_10_1" index="1" disallow="pedestrian tram rail_urban rail rail_electric rail_fast ship" speed="17.88" length="22.84" width="3.50" shape="265.18,50.05 288.02,50.10"/>
        <lane id=":337_10_2" index="2" disallow="pedestrian tram rail_urban rail rail_electric rail_fast ship" speed="17.88" length="22.84" width="3.50" shape="265.17,53.55 288.01,53.60"/>
    </edge>
    <edge id=":337_13" function="internal">
        <lane id=":337_13_0" index="0" disallow="pedestrian tram rail_urban rail rail_electric rail_fast ship" speed="9.38" length="19.59" width="3.73" shape="265.17,53.55 268.27,54.58 270.51,57.66 271.89,62.79 272.41,69.97"/>
    </edge>
    <edge id=":374_0" function="internal">
        <lane id=":374_0_0" index="0" disallow="pedestrian tram rail_urban rail rail_electric rail_fast ship" speed="17.88" length="36.04" width="3.15" shape="125.34,74.98 125.12,38.94"/>
        <lane id=":374_0_1" index="1" disallow="pedestrian tram rail_urban rail rail_electric rail_fast ship" speed="17.88" length="36.04" width="3.50" shape="128.67,74.98 128.45,38.93"/>
        <lane id=":374_0_2" index="2" disallow="pedestrian tram rail_urban rail rail_electric rail_fast ship" speed="17.88" length="36.04" width="3.50" shape="132.00,74.97 131.95,38.93"/>
        <lane id=":374_0_3" index="3" disallow="pedestrian tram rail_urban rail rail_electric rail_fast ship" speed="17.88" length="36.04" width="3.30" shape="135.40,74.97 135.35,38.92"/>
    </edge>
    <edge id=":374_4" function="internal">
        <lane id=":374_4_0" index="0" disallow="pedestrian tram rail_urban rail rail_electric rail_fast ship" speed="10.45" length="24.97" width="3.50" shape="135.40,74.97 135.88,65.46 137.37,58.67 139.85,54.61 143.33,53.26"/>
    </edge>
    <edge id=":374_5" function="internal">
        <lane id=":374_5_0" index="0" disallow="pedestrian tram rail_urban rail rail_electric rail_fast ship" speed="17.88" length="28.20" width="3.50" shape="143.31,63.76 115.10,63.69"/>
        <lane id=":374_5_1" index="1" disallow="pedestrian tram rail_urban rail rail_electric rail_fast ship" speed="17.88" length="28.20" width="3.50" shape="143.32,60.26 115.11,60.19"/>
        <lane id=":374_5_2" index="2" disallow="pedestrian tram rail_urban rail rail_electric rail_fast ship" speed="17.88" length="28.20" width="3.50" shape="143.33,56.76 115.12,56.69"/>
    </edge>
    <edge id=":374_8" function="internal">
        <lane id=":374_8_0" index="0" disallow="pedestrian tram rail_urban rail rail_electric rail_fast ship" speed="9.75" length="21.41" width="3.30" shape="143.33,56.76 139.84,55.63 137.35,52.29 135.85,46.72 135.35,38.92"/>
    </edge>
    <edge id=":374_9" function="internal">
        <lane id=":374_9_0" index="0" disallow="pedestrian tram rail_urban rail rail_electric rail_fast ship" speed="17.88" length="28.20" width="3.50" shape="115.15,46.19 143.35,46.26"/>
        <lane id=":374_9_1" index="1" disallow="pedestrian tram rail_urban rail rail_electric rail_fast ship" speed="17.88" length="28.20" width="3.50" shape="115.14,49.69 143.34,49.76"/>
        <lane id=":374_9_2" index="2" disallow="pedestrian tram rail_urban rail rail_electric rail_fast ship" speed="17.88" length="28.20" width="3.50" shape="115.13,53.19 143.33,53.26"/>
    </edge>
    <edge id=":39.end_0" function="internal">
        <lane id=":39.end_0_0" index="0" disallow="pedestrian tram rail_urban rail rail_electric rail_fast ship" speed="3.82" length="5.11" width="3.50" shape="357.51,180.83,0.00 358.84,181.68,0.00 359.29,182.55,0.00 358.87,183.43,0.00 357.57,184.33,0.00"/>
    </edge>
    <edge id=":4.end_0" function="internal">
        <lane id=":4.end_0_0" index="0" disallow="pedestrian tram rail_urban rail rail_electric rail_fast ship" speed="3.82" length="5.11" width="3.50" shape="346.29,666.20,-0.00 347.62,667.05,-0.00 348.07,667.92,-0.00 347.65,668.80,-0.00 346.35,669.70,-0.00"/>
    </edge>
    <edge id=":40.begin_0" function="internal">
        <lane id=":40.begin_0_0" index="0" disallow="pedestrian tram rail_urban rail rail_electric rail_fast ship" speed="3.82" length="5.11" width="3.50" shape="55.57,364.25 54.24,363.40 53.78,362.54 54.20,361.65 55.49,360.75"/>
    </edge>
    <edge id=":42.end_0" function="internal">
        <lane id=":42.end_0_0" index="0" disallow="pedestrian tram rail_urban rail rail_electric rail_fast ship" speed="3.82" length="5.11" width="3.50" shape="381.39,353.60 382.72,354.45 383.18,355.31 382.76,356.20 381.47,357.10"/>
    </edge>
    <edge id=":44.begin_0" function="internal">
        <lane id=":44.begin_0_0" index="0" disallow="pedestrian tram rail_urban rail rail_electric rail_fast ship" speed="3.82" length="5.11" width="3.50" shape="72.90,507.48 71.58,506.62 71.13,505.75 71.56,504.87 72.86,503.98"/>
    </edge>
    <edge id=":46.end_0" function="internal">
        <lane id=":46.end_0_0" index="0" disallow="pedestrian tram rail_urban rail rail_electric rail_fast ship" speed="3.82" length="5.11" width="3.50" shape="374.28,502.27 375.59,503.14 376.03,504.02 375.59,504.89 374.28,505.77"/>
    </edge>
    <edge id=":47.begin_0" function="internal">
        <lane id=":47.begin_0_0" index="0" disallow="pedestrian tram rail_urban rail rail_electric rail_fast ship" speed="3.82" length="5.11" width="3.50" shape="65.89,56.57 64.58,55.69 64.14,54.82 64.58,53.94 65.89,53.07"/>
    </edge>
    <edge id=":49.end_0" function="internal">
        <lane id=":49.end_0_0" index="0" disallow="pedestrian tram rail_urban rail rail_electric rail_fast ship" speed="3.82" length="5.11" width="3.50" shape="356.96,53.77 358.27,54.65 358.71,55.52 358.27,56.40 356.96,57.27"/>
    </edge>
    <edge id=":5.begin_0" function="internal">
        <lane id=":5.begin_0_0" index="0" disallow="pedestrian tram rail_urban rail rail_electric rail_fast ship" speed="3.82" length="5.11" width="3.50" shape="367.93,789.92 369.27,790.76 369.73,791.62 369.32,792.51 368.03,793.42"/>
    </edge>
    <edge id=":50_0" function="internal">
        <lane id=":50_0_0" index="0" disallow="pedestrian tram rail_urban rail rail_electric rail_fast ship" speed="8.02" length="14.52" width="3.30" shape="136.15,799.19 133.09,798.54 130.94,796.51 129.70,793.10 129.36,788.30"/>
    </edge>
    <edge id=":50_1" function="internal">
        <lane id=":50_1_0" index="0" disallow="pedestrian tram rail_urban rail rail_electric rail_fast ship" speed="17.88" length="18.01" width="3.15" shape="118.76,806.09 119.14,788.08"/>
        <lane id=":50_1_1" index="1" disallow="pedestrian tram rail_urban rail rail_electric rail_fast ship" speed="17.88" length="18.01" width="3.50" shape="122.09,806.16 122.46,788.15"/>
        <lane id=":50_1_2" index="2" disallow="pedestrian tram rail_urban rail rail_electric rail_fast ship" speed="17.88" length="18.01" width="3.50" shape="125.58,806.23 125.96,788.23"/>
        <lane id=":50_1_3" index="3" disallow="pedestrian tram rail_urban rail rail_electric rail_fast ship" speed="17.88" length="18.01" width="3.30" shape="128.98,806.30 129.36,788.30"/>
    </edge>
    <edge id=":50_5" function="internal">
        <lane id=":50_5_0" index="0" disallow="pedestrian tram rail_urban rail rail_electric rail_fast ship" speed="8.14" length="14.30" width="3.50" shape="128.98,806.30 129.51,801.69 130.87,798.39 133.07,796.38 136.10,795.69"/>
    </edge>
    <edge id=":500_0" function="internal">
        <lane id=":500_0_0" index="0" disallow="pedestrian tram rail_urban rail rail_electric rail_fast ship" speed="17.88" length="19.70" width="3.50" shape="125.59,371.31 125.74,351.61"/>
        <lane id=":500_0_1" index="1" disallow="pedestrian tram rail_urban rail rail_electric rail_fast ship" speed="17.88" length="19.70" width="3.15" shape="128.92,371.31 129.06,351.61"/>
        <lane id=":500_0_2" index="2" disallow="pedestrian tram rail_urban rail rail_electric rail_fast ship" speed="17.88" length="19.70" width="3.50" shape="132.42,371.30 132.39,351.61"/>
        <lane id=":500_0_3" index="3" disallow="pedestrian tram rail_urban rail rail_electric rail_fast ship" speed="17.88" length="19.70" width="3.30" shape="135.82,371.30 135.79,351.60"/>
    </edge>
    <edge id=":500_4" function="internal">
        <lane id=":500_4_0" index="0" disallow="pedestrian tram rail_urban rail rail_electric rail_fast ship" speed="9.04" length="18.08" width="3.50" shape="135.82,371.30 136.43,365.90 138.29,362.01 141.39,359.64 145.73,358.77"/>
    </edge>
    <edge id=":500_5" function="internal">
        <lane id=":500_5_0" index="0" disallow="pedestrian tram rail_urban rail rail_electric rail_fast ship" speed="17.88" length="28.17" width="3.50" shape="145.81,362.27 117.64,362.89"/>
    </edge>
    <edge id=":500_6" function="internal">
        <lane id=":500_6_0" index="0" disallow="pedestrian tram rail_urban rail rail_electric rail_fast ship" speed="8.61" length="16.76" width="3.30" shape="145.81,362.27 141.43,361.69 138.30,359.71 136.42,356.35 135.79,351.60"/>
    </edge>
    <edge id=":500_7" function="internal">
        <lane id=":500_7_0" index="0" disallow="pedestrian tram rail_urban rail rail_electric rail_fast ship" speed="17.88" length="28.17" width="3.50" shape="117.56,359.39 145.73,358.77"/>
    </edge>
    <edge id=":579_0" function="internal">